[TITLE]
;;Project Title/Notes

[OPTIONS]
FLOW_UNITS           CMS
INFILTRATION         GREEN_AMPT
FLOW_ROUTING         DYNWAVE
LINK_OFFSETS         DEPTH
MIN_SLOPE            0
ALLOW_PONDING        NO
SKIP_STEADY_STATE    NO
START_DATE           09/29/2025
START_TIME           00:00:00
REPORT_START_DATE    09/29/2025
REPORT_START_TIME    00:00:00
END_DATE             10/05/2025
END_TIME             00:00:00
SWEEP_START          09/29
SWEEP_END            10/05
DRY_DAYS             0
REPORT_STEP          01:00:00
WET_STEP             00:15:00
DRY_STEP             01:00:00
ROUTING_STEP         0:00:20
RULE_STEP            00:00:00
INERTIAL_DAMPING     PARTIAL
NORMAL_FLOW_LIMITED  BOTH
FORCE_MAIN_EQUATION  H-W
VARIABLE_STEP        0.75
LENGTHENING_STEP     0
MIN_SURFAREA         1.167
MAX_TRIALS           8
HEAD_TOLERANCE       0.0015
SYS_FLOW_TOL         5
LAT_FLOW_TOL         5
MINIMUM_STEP         0.5
THREADS              1

[EVAPORATION]
;;Data Source    Parameters
;;-------------- ----------------
CONSTANT         0.0
DRY_ONLY         NO

[RAINGAGES]
;;Name           Format    Interval SCF      Source    
;;-------------- --------- ------ ------ ----------
Gage1            INTENSITY 1:00     1.0      TIMESERIES TSN             

[SUBCATCHMENTS]
;;Name           Rain Gage        Outlet           Area     %Imperv  Width    %Slope   CurbLen  SnowPack        
;;-------------- ---------------- ---------------- -------- -------- -------- -------- -------- ----------------
S1               Gage1            153800dn         33711    50       14788    0.5      0                        
S2               Gage1            145100dn         63214    50       20510    0.5      0                        
S3               Gage1            141100dn         31732    50       16138    0.5      0                        
S4               Gage1            131200dn         8176     50       8039     0.5      0                        
S5               Gage1            136300dn         8956     50       10940    0.5      0                        
S6               Gage1            121800dn         3519     50       7131     0.5      0                        
S7               Gage1            126900DN         6621     50       7940     0.5      0                        
S8               Gage1            113000dn         3904     50       2763     0.5      0                        
S9               Gage1            125000sg         4376     50       3888     0.5      0                        
S10              Gage1            95000dn          3144     50       1902     0.5      0                        
S11              Gage1            113000sg         5781     50       4658     0.5      0                        
S12              Gage1            72920dn          4134     50       2093     0.5      0                        
S13              Gage1            60000dn          2427     50       1118     0.5      0                        
S14              Gage1            16096dn          2580     50       1790     0.5      0                        
S15              Gage1            49970dn          1694     50       1095     0.5      0                        
S16              Gage1            42837dn          2715     50       1211     0.5      0                        
S17              Gage1            3975dn           2931     50       1318     0.5      0                        
S18              Gage1            95000sg          8059     50       3980     0.5      0                        
S19              Gage1            69000sg          5799     50       3047     0.5      0                        
S20              Gage1            53000sg          60578    50       20412    0.5      0                        
S21              Gage1            9000sg           56146    50       18839    0.5      0                        
S22              Gage1            24000sg          90922    50       34819    0.5      0                        

[SUBAREAS]
;;Subcatchment   N-Imperv   N-Perv     S-Imperv   S-Perv     PctZero    RouteTo    PctRouted 
;;-------------- ---------- ---------- ---------- ---------- ---------- ---------- ----------
S1               0.01       0.1        0.05       0.05       25         OUTLET    
S2               0.01       0.1        0.05       0.05       25         OUTLET    
S3               0.01       0.1        0.05       0.05       25         OUTLET    
S4               0.01       0.1        0.05       0.05       25         OUTLET    
S5               0.01       0.1        0.05       0.05       25         OUTLET    
S6               0.01       0.1        0.05       0.05       25         OUTLET    
S7               0.01       0.1        0.05       0.05       25         OUTLET    
S8               0.01       0.1        0.05       0.05       25         OUTLET    
S9               0.01       0.1        0.05       0.05       25         OUTLET    
S10              0.01       0.1        0.05       0.05       25         OUTLET    
S11              0.01       0.1        0.05       0.05       25         OUTLET    
S12              0.01       0.1        0.05       0.05       25         OUTLET    
S13              0.01       0.1        0.05       0.05       25         OUTLET    
S14              0.01       0.1        0.05       0.05       25         OUTLET    
S15              0.01       0.1        0.05       0.05       25         OUTLET    
S16              0.01       0.1        0.05       0.05       25         OUTLET    
S17              0.01       0.1        0.05       0.05       25         OUTLET    
S18              0.01       0.1        0.05       0.05       25         OUTLET    
S19              0.01       0.1        0.05       0.05       25         OUTLET    
S20              0.01       0.1        0.05       0.05       25         OUTLET    
S21              0.01       0.1        0.05       0.05       25         OUTLET    
S22              0.01       0.1        0.05       0.05       25         OUTLET    

[INFILTRATION]
;;Subcatchment   Param1     Param2     Param3     Param4     Param5    
;;-------------- ---------- ---------- ---------- ---------- ----------
S1               3.5        0.4        0.25                            
S2               3.5        0.4        0.25                            
S3               3.5        0.4        0.25                            
S4               3.5        0.4        0.25                            
S5               3.5        0.4        0.25                            
S6               3.5        0.4        0.25                            
S7               3.5        0.4        0.25                            
S8               3.5        0.4        0.25                            
S9               3.5        0.4        0.25                            
S10              3.5        0.4        0.25                            
S11              3.5        0.4        0.25                            
S12              3.5        0.4        0.25                            
S13              3.5        0.4        0.25                            
S14              3.5        0.4        0.25                            
S15              3.5        0.4        0.25                            
S16              3.5        0.4        0.25                            
S17              3.5        0.4        0.25                            
S18              3.5        0.4        0.25                            
S19              3.5        0.4        0.25                            
S20              3.5        0.4        0.25                            
S21              3.5        0.4        0.25                            
S22              3.5        0.4        0.25                            

[JUNCTIONS]
;;Name           Elevation  MaxDepth   InitDepth  SurDepth   Aponded   
;;-------------- ---------- ---------- ---------- ---------- ----------
3975DN           -6.85      20.2       20.2       0          0         
11989DN          -7.7       19.73      19.73      0          0         
8095DN           -6.85      20.2       20.2       0          0         
16096DN          -9.62      16.92      16.92      0          0         
21977DN          -9.62      16.92      16.92      0          0         
28086DN          -6.79      14.8       14.8       0          0         
34000DN          -8.45      14.1       14.1       0          0         
39190DN          -8.45      14.1       14.1       0          0         
42837DN          -10.92     17.54      17.54      0          0         
44069DN          -11.98     18.6       18.6       0          0         
49970DN          -11.98     18.6       18.6       0          0         
56094DN          -10.41     12.41      12.41      0          0         
60000DN          -9.45      11.72      11.72      0          0         
64000DN          -9.45      11.72      11.72      0          0         
64700DN          -11.2      13.47      13.47      0          0         
68000DN          -14.25     17.64      17.64      0          0         
72920DN          -10.24     12.24      12.24      0          0         
78275DN          -11.14     13.14      13.14      0          0         
83000DN          -16.13     18.13      18.13      0          0         
87000DN          -14.58     16.58      16.58      0          0         
91115DN          -14.58     16.58      16.58      0          0         
95000DN          -17.11     19.77      19.77      0          0         
99000DN          -17.11     19.77      19.77      0          0         
102700DN         -13.48     15.48      15.48      0          0         
103000           -11.41     13.41      13.41      0          0         
108000DN         -13.61     15.61      15.61      0          0         
113000DN         -16.75     18.23      18.23      0          0         
113700DN         -24.04     25.52      25.52      0          0         
116200DN         -10.69     11.46      11.46      0          0         
117600DN         -27.2      11.46      11.46      0          0         
118000DN         -26.86     27.71      27.71      0          0         
118400DN         -25.1      25.92      25.92      0          0         
119400DN         -14.24     15.2       15.2       0          0         
120000DN         -12.5      13.4       13.4       0          0         
120200DN         -13.08     13.88      13.88      0          0         
121100DN         -14.56     15.76      15.76      0          0         
121800DN         -15.76     16.86      16.86      0          0         
122500DN         -18        18.6       18.6       0          0         
123000DN         -19.53     20.33      20.33      0          0         
123700DN         -16.5      17.4       17.4       0          0         
124200DN         -18.5      19.36      19.36      0          0         
124700DN         -19.98     20.78      20.78      0          0         
125300DN         -20.37     21.17      21.17      0          0         
126100DN         -17.3      18.2       18.2       0          0         
126900DN         -12.45     13.65      13.65      0          0         
127200DN         -11.56     12.66      12.66      0          0         
128100DN         -17.06     18.16      18.16      0          0         
128800DN         -15.21     15.81      15.81      0          0         
128500DN         -16.25     16.95      16.95      0          0         
125700DN         -20.37     21.17      21.17      0          0         
129100DN         -14.12     15.22      15.22      0          0         
129700DN         -14.24     14.84      14.84      0          0         
130000DN         -16.97     17.37      17.37      0          0         
130800DN         -15.4      16.3       16.3       0          0         
131200DN         -15.02     15.62      15.62      0          0         
131600DN         -17.21     18.01      18.01      0          0         
132100DN         -19.86     20.58      20.58      0          0         
133000DN         -20.09     21.19      21.19      0          0         
133300DN         -21.14     22.34      22.34      0          0         
133900DN         -22.45     23.25      23.25      0          0         
134600DN         -19.3      20.6       20.6       0          0         
135200DN         -15.95     16.65      16.65      0          0         
135500DN         -14.49     15.49      15.49      0          0         
135900DN         -14.71     15.61      15.61      0          0         
136300DN         -13.74     14.24      14.24      0          0         
136800DN         -12.23     13.03      13.03      0          0         
137200DN         -11.33     12.23      12.23      0          0         
137600DN         -11.24     12.34      12.34      0          0         
138100DN         -10.87     11.67      11.67      0          0         
138400DN         -11.9      12.9       12.9       0          0         
139700DN         -10.82     11.62      11.62      0          0         
140800DN         -9.46      10.26      10.26      0          0         
141100DN         -8.51      9.61       9.61       0          0         
143500DN         -9.89      11.19      11.19      0          0         
145100DN         -12.98     14.18      14.18      0          0         
147900DN         -15.35     16.55      16.55      0          0         
153800DN         -11.05     12.17      12.17      0          0         
3000SG           -7         9          9          0          0         
9000SG           -5.7       7.7        7.7        0          0         
14000SG          -5.7       7.7        7.7        0          0         
19000SG          -6.3       8.3        8.3        0          0         
24000SG          -6         8          8          0          0         
29000SG          -5.5       7.5        7.5        0          0         
37000SG          -6.8       9.3        9.3        0          0         
45000SG          -8         10         10         0          0         
53000SG          -8.8       10.8       10.8       0          0         
61000SG          -9.2       11.2       11.2       0          0         
69000SG          -13.3      15.3       15.3       0          0         
74000SG          -15        17         17         0          0         
80000SG          -14        16         16         0          0         
85000sg          -16.8      18.8       18.8       0          0         
90000SG          -20        22         22         0          0         
95000SG          -19.3      22.5       22.5       0          0         
101000SG         -19.5      21.6       21.6       0          0         
107000SG         -24.5      27.5       27.5       0          0         
113000SG         -20.5      23.1       23.1       0          0         
119000SG         -20.2      22.2       22.2       0          0         
125000SG         -15.51     17.51      17.51      0          0         
132000SG         -17.11     19.11      19.11      0          0         
136900SG         -17.11     19.11      19.11      0          0         

[OUTFALLS]
;;Name           Elevation  Type       Stage Data       Gated    Route To        
;;-------------- ---------- ---------- ---------------- -------- ----------------
158108DN         -11.27     TIMESERIES VT               NO                       

[STORAGE]
;;Name           Elev.    MaxDepth   InitDepth  Shape      Curve Type/Params            SurDepth  Fevap    Psi      Ksat     IMD     
;;-------------- -------- ---------- ----------- ---------- ---------------------------- --------- --------          -------- --------
0SG              -7       9          9          FUNCTIONAL 0          0          1000     0         0       
0DN              -6.85    20.20      20.2       FUNCTIONAL 0          0          1000     0         0       

[CONDUITS]
;;Name           From Node        To Node          Length     Roughness  InOffset   OutOffset  InitFlow   MaxFlow   
;;-------------- ---------------- ---------------- ---------- ---------- ---------- ---------- ---------- ----------
C1               0DN              3975DN           3975       0.023      0          0          0          0         
C2               3975DN           8095DN           4120       0.023      0          0          0          0         
C3               8095DN           11989DN          3894       0.023      0          0          0          0         
C4               11989DN          16096DN          4107       0.023      0          0          0          0         
C5               16096DN          21977DN          5881       0.023      0          0          0          0         
C6               21977DN          28086DN          6110       0.023      0          0          0          0         
C7               28086DN          34000DN          5914       0.023      0          0          0          0         
C8               34000DN          39190DN          5190       0.023      0          0          0          0         
C9               39190DN          42837DN          3697       0.023      0          0          0          0         
C10              42837DN          44069DN          1232       0.023      0          0          0          0         
C11              44069DN          49970DN          5901       0.023      0          0          0          0         
C12              49970DN          56094DN          6123       0.023      0          0          0          0         
C13              56094DN          60000DN          3906       0.023      0          0          0          0         
C14              60000DN          64000DN          4000       0.023      0          0          0          0         
C15              64000DN          64700DN          700        0.023      0          0          0          0         
C16              64700DN          68000DN          3300       0.023      0          0          0          0         
C17              68000DN          72920DN          4920       0.023      0          0          0          0         
C18              72920DN          78275DN          5355       0.023      0          0          0          0         
C19              78275DN          83000DN          4725       0.023      0          0          0          0         
C20              83000DN          87000DN          4000       0.023      0          0          0          0         
C21              87000DN          91115DN          4115       0.023      0          0          0          0         
C22              91115DN          95000DN          3885       0.023      0          0          0          0         
C23              95000DN          99000DN          4000       0.023      0          0          0          0         
C24              99000DN          102700DN         28000      0.023      0          0          0          0         
C25              102700DN         103000           300        0.023      0          0          0          0         
C26              103000           108000DN         5000       0.023      0          0          0          0         
C27              108000DN         113000DN         5000       0.023      0          0          0          0         
C28              113000DN         113700DN         700        0.03       0          0          0          0         
C29              113700DN         116200DN         2500       0.03       0          0          0          0         
C30              116200DN         117600DN         1400       0.03       0          0          0          0         
C31              117600DN         118000DN         400        0.03       0          0          0          0         
C32              118000DN         118400DN         400        0.03       0          0          0          0         
C33              118400DN         119400DN         1000       0.03       0          0          0          0         
C34              119400DN         120000DN         600        0.03       0          0          0          0         
C35              120000DN         120200DN         200        0.03       0          0          0          0         
C36              120200DN         121100DN         900        0.03       0          0          0          0         
C37              121100DN         121800DN         700        0.03       0          0          0          0         
C38              121800DN         122500DN         700        0.03       0          0          0          0         
C39              122500DN         123000DN         500        0.03       0          0          0          0         
C40              123000DN         123700DN         700        0.03       0          0          0          0         
C41              123700DN         124200DN         500        0.03       0          0          0          0         
C42              124200DN         124700DN         500        0.03       0          0          0          0         
C43              124700DN         125300DN         600        0.03       0          0          0          0         
C44              125300DN         125700DN         400        0.03       0          0          0          0         
C45              125700DN         126100DN         400        0.03       0          0          0          0         
C46              126100DN         126900DN         800        0.03       0          0          0          0         
C47              126900DN         127200DN         300        0.03       0          0          0          0         
C48              127200DN         128100DN         900        0.03       0          0          0          0         
C49              128100DN         128500DN         400        0.03       0          0          0          0         
C50              128500DN         128800DN         300        0.03       0          0          0          0         
C51              128800DN         129100DN         300        0.03       0          0          0          0         
C52              129100DN         129700DN         600        0.03       0          0          0          0         
C53              129700DN         130000DN         300        0.03       0          0          0          0         
C54              130000DN         130800DN         800        0.03       0          0          0          0         
C55              130800DN         131200DN         400        0.03       0          0          0          0         
C56              131200DN         131600DN         400        0.03       0          0          0          0         
C57              131600DN         132100DN         500        0.03       0          0          0          0         
C58              132100DN         133000DN         900        0.03       0          0          0          0         
C59              133000DN         133300DN         300        0.03       0          0          0          0         
C60              133300DN         133900DN         600        0.03       0          0          0          0         
C61              133900DN         134600DN         700        0.03       0          0          0          0         
C62              134600DN         135200DN         600        0.03       0          0          0          0         
C63              135200DN         135500DN         300        0.03       0          0          0          0         
C64              135500DN         135900DN         400        0.03       0          0          0          0         
C65              135900DN         136300DN         400        0.03       0          0          0          0         
C66              136300DN         136800DN         500        0.03       0          0          0          0         
C68              137200DN         137600DN         400        0.03       0          0          0          0         
C69              136800DN         137200DN         400        0.03       0          0          0          0         
C70              137600DN         138100DN         500        0.03       0          0          0          0         
C71              138100DN         138400DN         300        0.03       0          0          0          0         
C72              138400DN         139700DN         1300       0.03       0          0          0          0         
C73              139700DN         140800DN         1100       0.03       0          0          0          0         
C74              140800DN         141100DN         300        0.03       0          0          0          0         
C75              141100DN         143500DN         2400       0.03       0          0          0          0         
C76              143500DN         145100DN         1600       0.03       0          0          0          0         
C77              145100DN         147900DN         2800       0.03       0          0          0          0         
C78              147900DN         153800DN         5900       0.03       0          0          0          0         
C79              153800DN         158108DN         4308       0.03       0          0          0          0         
C80              0SG              3000SG           3000       0.03       0          0          0          0         
C81              3000SG           9000SG           6000       0.03       0          0          0          0         
C82              9000SG           14000SG          5000       0.03       0          0          0          0         
C83              14000SG          19000SG          5000       0.03       0          0          0          0         
C84              19000SG          24000SG          5000       0.03       0          0          0          0         
C85              24000SG          29000SG          5000       0.03       0          0          0          0         
C86              29000SG          37000SG          8000       0.03       0          0          0          0         
C87              37000SG          45000SG          8000       0.03       0          0          0          0         
C88              45000SG          53000SG          8000       0.03       0          0          0          0         
C89              53000SG          61000SG          8000       0.03       0          0          0          0         
C90              61000SG          69000SG          8000       0.03       0          0          0          0         
C91              69000SG          74000SG          5000       0.03       0          0          0          0         
C92              74000SG          80000SG          6000       0.03       0          0          0          0         
C93              80000SG          85000sg          5000       0.03       0          0          0          0         
C94              85000sg          90000SG          5000       0.03       0          0          0          0         
C95              90000SG          95000SG          5000       0.03       0          0          0          0         
C96              95000SG          101000SG         6000       0.03       0          0          0          0         
C97              101000SG         107000SG         6000       0.015      0          0          0          0         
C98              107000SG         113000SG         6000       0.015      0          0          0          0         
C99              113000SG         119000SG         6000       0.015      0          0          0          0         
C100             119000SG         125000SG         6000       0.015      0          0          0          0         
C101             125000SG         132000SG         7000       0.015      0          0          0          0         
C102             132000SG         136900SG         4700       0.015      0          0          0          0         
C67              136900SG         113000DN         4000       0.015      0          0          0          0         

[XSECTIONS]
;;Link           Shape        Geom1            Geom2      Geom3      Geom4      Barrels    Culvert   
;;-------------- ------------ ---------------- ---------- ---------- ---------- ---------- ----------
C1               IRREGULAR    4000            
C2               IRREGULAR    8000            
C3               IRREGULAR    12000           
C4               IRREGULAR    16000           
C5               IRREGULAR    22000           
C6               IRREGULAR    28000           
C7               IRREGULAR    34000           
C8               IRREGULAR    39000           
C9               IRREGULAR    42600           
C10              IRREGULAR    44000           
C11              IRREGULAR    50000           
C12              IRREGULAR    56000           
C13              IRREGULAR    60000           
C14              IRREGULAR    64000           
C15              IRREGULAR    64700           
C16              IRREGULAR    68000           
C17              IRREGULAR    73000           
C18              IRREGULAR    78000           
C19              IRREGULAR    83000           
C20              IRREGULAR    87000           
C21              IRREGULAR    91000           
C22              IRREGULAR    95000           
C23              IRREGULAR    99000           
C24              IRREGULAR    102700          
C25              IRREGULAR    103000          
C26              IRREGULAR    108000          
C27              IRREGULAR    113000          
C28              IRREGULAR    113700          
C29              IRREGULAR    116200          
C30              IRREGULAR    116200          
C31              IRREGULAR    118000          
C32              IRREGULAR    118400          
C33              IRREGULAR    119400          
C34              IRREGULAR    120000          
C35              IRREGULAR    120200          
C36              IRREGULAR    121100          
C37              IRREGULAR    121800          